-------------------------------------------------------
          Amber 18 PMEMD                              2018
          -------------------------------------------------------

  [-O]verwriting output

File Assignments:

 Here is the input file:

Equilibration with solute restrictions
&cntrl
imin = 0,                           ! No Minimization
nmropt = 0,                         ! No NMR restraints read

! Nature and format of the input
ntx = 5,                            ! Coordinates but no velocities will be rea
irest = 1,                          ! Do not run a new simulation

! Nature and format of the output
ntxo = 1,                           ! rstrt file in ASCII format
ntpr = 500,                         ! inf in output every ntpr steps
ntwr = 500,                         ! rstrt file every ntwr steps
ntwx = 500,                         ! mdcrd file every ntwx steps
ntwv = 0,                           ! mdvel without velocities
ntwe = 0,                           ! Do not write energies and temperatures
idecomp = 0,                        ! No energy decomposition
iwrap = 1,                          ! Coordinates of the restart and mdcrd file

! Frozen or restrained atoms
ibelly = 0,                         ! No frozen atoms
ntr=1,                              ! Harmonic potential restraints
restraint_wt = 5.0,                ! The weight for the positional restraints
restraintmask = ':1-131@N,CA,C,O',  ! restrained residues

! Molecular dynamics
nstlim = 50000,                     ! Number of MD-steps
dt = 0.002,                         ! Time step

! Temperature regulation
ntt = 3,                            ! Langevin thermostat
gamma_ln = 5,                       ! Gamma constant for Langevin
temp0 = 300.0,                      ! Reference T at which the system is to be
tempi = 300.0,                      ! Initial T
ig = -1,                            ! Seed for the RNG

! P and V regulation
ntp = 1,                            ! constant P
barostat = 1,                       ! Berendsen barostat
taup = 1,                           ! Pressure relaxation time
ntb = 2,                            ! Periodic box for constant P

! SHAKE variables
ntc = 2,                            ! Bonds involving H are constrained
ntf = 2,                            ! Bond interaction involving H are ommited.

cut = 10.0,                         ! Nonbonded cutoff
/
&end

Note: ig = -1. Setting random seed to   189738 based on wallclock time in
      microseconds.

--------------------------------------------------------------------------------
   1.  RESOURCE   USE:
--------------------------------------------------------------------------------

 getting new box info from bottom of inpcrd
 NATOM  =   20617 NTYPES =      17 NBONH =   14934 MBONA  =    5699
 NTHETH =    2406 MTHETA =    1438 NPHIH =    4850 MPHIA  =    4505
 NHPARM =       0 NPARM  =       0 NNB   =   44013 NRES   =    4757
 NBONA  =    5699 NTHETA =    1438 NPHIA =    4505 NUMBND =      69
 NUMANG =     155 NPTRA  =     178 NATYP =      35 NPHB   =       1
 IFBOX  =       2 NMXRS  =      24 IFCAP =       0 NEXTRA =    4626
 NCOPY  =       0

     BOX TYPE: TRUNCATED OCTAHEDRON

--------------------------------------------------------------------------------
   2.  CONTROL  DATA  FOR  THE  RUN
--------------------------------------------------------------------------------

default_name

General flags:
     imin    =       0, nmropt  =       0

Nature and format of input:
     ntx     =       5, irest   =       1, ntrx    =       1

Nature and format of output:
     ntxo    =       1, ntpr    =     500, ntrx    =       1, ntwr    =     500
     iwrap   =       1, ntwx    =     500, ntwv    =       0, ntwe    =       0
     ioutfm  =       1, ntwprt  =       0, idecomp =       0, rbornstat=      0

Potential function:
     ntf     =       2, ntb     =       2, igb     =       0, nsnb    =      25
     ipol    =       0, gbsa    =       0, iesp    =       0
     dielc   =   1.00000, cut     =  10.00000, intdiel =   1.00000

Frozen or restrained atoms:
     ibelly  =       0, ntr     =       1
     restraint_wt =   5.00000

Molecular dynamics:
     nstlim  =     50000, nscm    =         0, nrespa  =         1
     t       =   0.00000, dt      =   0.00200, vlimit  =  -1.00000

Langevin dynamics temperature regulation:
     ig      =  189738
     temp0   = 300.00000, tempi   = 300.00000, gamma_ln=   5.00000

Pressure regulation:
     ntp     =       1
     pres0   =   1.00000, comp    =  44.60000, taup    =   1.00000

SHAKE:
     ntc     =       2, jfastw  =       0
     tol     =   0.00001

Extra-points options:
     frameon =       1, chngmask=       1

Ewald parameters:
     verbose =       0, ew_type =       0, nbflag  =       1, use_pme =       1
     vdwmeth =       1, eedmeth =       1, netfrc  =       1
     Box X =   58.877   Box Y =   58.877   Box Z =   58.877
     Alpha =  109.471   Beta  =  109.471   Gamma =  109.471
     NFFT1 =   64       NFFT2 =   64       NFFT3 =   64
     Cutoff=   10.000   Tol   =0.100E-04
     Ewald Coefficient =  0.27511
     Interpolation order =    4

    LOADING THE CONSTRAINED ATOMS AS GROUPS

   5.  REFERENCE ATOM COORDINATES

  default_name
     Mask :1-131@N,CA,C,O; matches   524 atoms

--------------------------------------------------------------------------------
   3.  ATOMIC COORDINATES AND VELOCITIES
--------------------------------------------------------------------------------

default_name
 begin time read from input coords =  1700.000 ps

 Number of triangulated 3-point waters found:     4626

     Sum of charges from parm topology file =   0.00002534
     Forcing neutrality...

--------------------------------------------------------------------------------
   4.  RESULTS
 NSTEP =      500   TIME(PS) =    1701.000  TEMP(K) =   299.81  PRESS =    30.8
 Etot   =    -51497.2999  EKtot   =      9841.8232  EPtot      =    -61339.1231
 BOND   =       403.6966  ANGLE   =      1123.7652  DIHED      =       773.4369
 UB     =         0.0000  IMP     =         0.0000  CMAP       =       125.7883
 1-4 NB =       468.5002  1-4 EEL =      5711.6230  VDWAALS    =      6873.5929
 EELEC  =    -76914.4211  EHBOND  =         0.0000  RESTRAINT  =        94.8948
 EAMBER (non-restraint)  =    -61434.0178
 EKCMT  =      4165.7017  VIRIAL  =      4060.7871  VOLUME     =    157833.4844
                                                    Density    =         1.0346
 ------------------------------------------------------------------------------

      A V E R A G E S   O V E R     100 S T E P S

 NSTEP =    50000   TIME(PS) =    1800.000  TEMP(K) =   300.01  PRESS =   -23.9
 Etot   =    -51477.6914  EKtot   =      9848.3905  EPtot      =    -61326.0819
 BOND   =       414.7760  ANGLE   =      1099.7341  DIHED      =       758.0664
 UB     =         0.0000  IMP     =         0.0000  CMAP       =       117.5638
 1-4 NB =       468.2093  1-4 EEL =      5673.9846  VDWAALS    =      6985.7615
 EELEC  =    -76947.7742  EHBOND  =         0.0000  RESTRAINT  =       103.5965
 EAMBER (non-restraint)  =    -61429.6784
 EKCMT  =      4153.7935  VIRIAL  =      4235.0289  VOLUME     =    157725.5131
                                                    Density    =         1.0353
 ------------------------------------------------------------------------------

      R M S  F L U C T U A T I O N S

 NSTEP =    50000   TIME(PS) =    1800.000  TEMP(K) =     2.29  PRESS =   190.7
 Etot   =       135.8972  EKtot   =        75.0271  EPtot      =       115.9272
 BOND   =        16.1901  ANGLE   =        26.3089  DIHED      =        14.4354
 UB     =         0.0000  IMP     =         0.0000  CMAP       =         4.0213
 1-4 NB =         8.8550  1-4 EEL =        20.1538  VDWAALS    =       105.4268
 EELEC  =       180.8615  EHBOND  =         0.0000  RESTRAINT  =         6.8116
 EAMBER (non-restraint)  =       109.1156
 EKCMT  =        54.1189  VIRIAL  =       651.5916  VOLUME     =       335.4869
                                                    Density    =         0.0022
 ------------------------------------------------------------------------------
