-------------------------------------------------------
          Amber 18 PMEMD                              2018
          -------------------------------------------------------

  [-O]verwriting output

File Assignments:

 Here is the input file:

Equilibration with solute restrictions
&cntrl
imin = 0,                           ! No Minimization
nmropt = 0,                         ! No NMR restraints read

! Nature and format of the input
ntx = 5,                            ! Coordinates but no velocities will be rea
irest = 1,                          ! Do not run a new simulation

! Nature and format of the output
ntxo = 1,                           ! rstrt file in ASCII format
ntpr = 500,                         ! inf in output every ntpr steps
ntwr = 500,                         ! rstrt file every ntwr steps
ntwx = 500,                         ! mdcrd file every ntwx steps
ntwv = 0,                           ! mdvel without velocities
ntwe = 0,                           ! Do not write energies and temperatures
idecomp = 0,                        ! No energy decomposition
iwrap = 1,                          ! Coordinates of the restart and mdcrd file

! Frozen or restrained atoms
ibelly = 0,                         ! No frozen atoms
ntr=1,                              ! Harmonic potential restraints
restraint_wt = 0.045,                ! The weight for the positional restraints
restraintmask = ':1-131@N,CA,C,O',  ! restrained residues

! Molecular dynamics
nstlim = 50000,                     ! Number of MD-steps
dt = 0.002,                         ! Time step

! Temperature regulation
ntt = 3,                            ! Langevin thermostat
gamma_ln = 5,                       ! Gamma constant for Langevin
temp0 = 300.0,                      ! Reference T at which the system is to be
tempi = 300.0,                      ! Initial T
ig = -1,                            ! Seed for the RNG

! P and V regulation
ntp = 1,                            ! constant P
barostat = 1,                       ! Berendsen barostat
taup = 1,                           ! Pressure relaxation time
ntb = 2,                            ! Periodic box for constant P

! SHAKE variables
ntc = 2,                            ! Bonds involving H are constrained
ntf = 2,                            ! Bond interaction involving H are ommited.

cut = 10.0,                         ! Nonbonded cutoff
/
&end

Note: ig = -1. Setting random seed to    18546 based on wallclock time in
      microseconds.

--------------------------------------------------------------------------------
   1.  RESOURCE   USE:
--------------------------------------------------------------------------------

 getting new box info from bottom of inpcrd
 NATOM  =   20617 NTYPES =      17 NBONH =   14934 MBONA  =    5699
 NTHETH =    2406 MTHETA =    1438 NPHIH =    4850 MPHIA  =    4505
 NHPARM =       0 NPARM  =       0 NNB   =   44013 NRES   =    4757
 NBONA  =    5699 NTHETA =    1438 NPHIA =    4505 NUMBND =      69
 NUMANG =     155 NPTRA  =     178 NATYP =      35 NPHB   =       1
 IFBOX  =       2 NMXRS  =      24 IFCAP =       0 NEXTRA =    4626
 NCOPY  =       0

     BOX TYPE: TRUNCATED OCTAHEDRON

--------------------------------------------------------------------------------
   2.  CONTROL  DATA  FOR  THE  RUN
--------------------------------------------------------------------------------

default_name

General flags:
     imin    =       0, nmropt  =       0

Nature and format of input:
     ntx     =       5, irest   =       1, ntrx    =       1

Nature and format of output:
     ntxo    =       1, ntpr    =     500, ntrx    =       1, ntwr    =     500
     iwrap   =       1, ntwx    =     500, ntwv    =       0, ntwe    =       0
     ioutfm  =       1, ntwprt  =       0, idecomp =       0, rbornstat=      0

Potential function:
     ntf     =       2, ntb     =       2, igb     =       0, nsnb    =      25
     ipol    =       0, gbsa    =       0, iesp    =       0
     dielc   =   1.00000, cut     =  10.00000, intdiel =   1.00000

Frozen or restrained atoms:
     ibelly  =       0, ntr     =       1
     restraint_wt =   0.04500

Molecular dynamics:
     nstlim  =     50000, nscm    =         0, nrespa  =         1
     t       =   0.00000, dt      =   0.00200, vlimit  =  -1.00000

Langevin dynamics temperature regulation:
     ig      =   18546
     temp0   = 300.00000, tempi   = 300.00000, gamma_ln=   5.00000

Pressure regulation:
     ntp     =       1
     pres0   =   1.00000, comp    =  44.60000, taup    =   1.00000

SHAKE:
     ntc     =       2, jfastw  =       0
     tol     =   0.00001

Extra-points options:
     frameon =       1, chngmask=       1

Ewald parameters:
     verbose =       0, ew_type =       0, nbflag  =       1, use_pme =       1
     vdwmeth =       1, eedmeth =       1, netfrc  =       1
     Box X =   58.851   Box Y =   58.851   Box Z =   58.851
     Alpha =  109.471   Beta  =  109.471   Gamma =  109.471
     NFFT1 =   64       NFFT2 =   64       NFFT3 =   64
     Cutoff=   10.000   Tol   =0.100E-04
     Ewald Coefficient =  0.27511
     Interpolation order =    4

    LOADING THE CONSTRAINED ATOMS AS GROUPS

   5.  REFERENCE ATOM COORDINATES

  default_name
     Mask :1-131@N,CA,C,O; matches   524 atoms

--------------------------------------------------------------------------------
   3.  ATOMIC COORDINATES AND VELOCITIES
--------------------------------------------------------------------------------

default_name
 begin time read from input coords =  5000.000 ps

 Number of triangulated 3-point waters found:     4626

     Sum of charges from parm topology file =   0.00002534
     Forcing neutrality...

--------------------------------------------------------------------------------
   4.  RESULTS
 NSTEP =      500   TIME(PS) =    5001.000  TEMP(K) =   302.32  PRESS =    33.9
 Etot   =    -51690.5820  EKtot   =      9924.3379  EPtot      =    -61614.9199
 BOND   =       445.7611  ANGLE   =      1066.9302  DIHED      =       755.3314
 UB     =         0.0000  IMP     =         0.0000  CMAP       =        90.8902
 1-4 NB =       461.6846  1-4 EEL =      5726.2816  VDWAALS    =      6767.9862
 EELEC  =    -76934.0013  EHBOND  =         0.0000  RESTRAINT  =         4.2160
 EAMBER (non-restraint)  =    -61619.1359
 EKCMT  =      4179.3739  VIRIAL  =      4064.3481  VOLUME     =    157242.7005
                                                    Density    =         1.0385
 ------------------------------------------------------------------------------

      A V E R A G E S   O V E R     100 S T E P S

 NSTEP =    50000   TIME(PS) =    5100.000  TEMP(K) =   299.86  PRESS =     0.7
 Etot   =    -51812.1560  EKtot   =      9843.6072  EPtot      =    -61655.7632
 BOND   =       411.1669  ANGLE   =      1080.6892  DIHED      =       755.5828
 UB     =         0.0000  IMP     =         0.0000  CMAP       =        94.2601
 1-4 NB =       475.1810  1-4 EEL =      5724.9832  VDWAALS    =      6938.4075
 EELEC  =    -77145.4677  EHBOND  =         0.0000  RESTRAINT  =         9.4338
 EAMBER (non-restraint)  =    -61665.1970
 EKCMT  =      4149.1179  VIRIAL  =      4146.6858  VOLUME     =    157201.2193
                                                    Density    =         1.0388
 ------------------------------------------------------------------------------

      R M S  F L U C T U A T I O N S

 NSTEP =    50000   TIME(PS) =    5100.000  TEMP(K) =     2.46  PRESS =   210.1
 Etot   =       138.0160  EKtot   =        80.9143  EPtot      =       100.0920
 BOND   =        18.2697  ANGLE   =        23.8241  DIHED      =        12.3012
 UB     =         0.0000  IMP     =         0.0000  CMAP       =         5.0478
 1-4 NB =        10.1175  1-4 EEL =        23.3460  VDWAALS    =       103.1170
 EELEC  =       161.5270  EHBOND  =         0.0000  RESTRAINT  =         1.7593
 EAMBER (non-restraint)  =        98.3327
 EKCMT  =        45.6885  VIRIAL  =       712.2717  VOLUME     =       375.2933
                                                    Density    =         0.0025
 ------------------------------------------------------------------------------
