-------------------------------------------------------
          Amber 18 PMEMD                              2018
          -------------------------------------------------------

  [-O]verwriting output

File Assignments:

 Here is the input file:

Equilibration with solute restrictions
&cntrl
imin = 0,                           ! No Minimization
nmropt = 0,                         ! No NMR restraints read

! Nature and format of the input
ntx = 5,                            ! Coordinates but no velocities will be rea
irest = 1,                          ! Do not run a new simulation

! Nature and format of the output
ntxo = 1,                           ! rstrt file in ASCII format
ntpr = 500,                         ! inf in output every ntpr steps
ntwr = 500,                         ! rstrt file every ntwr steps
ntwx = 500,                         ! mdcrd file every ntwx steps
ntwv = 0,                           ! mdvel without velocities
ntwe = 0,                           ! Do not write energies and temperatures
idecomp = 0,                        ! No energy decomposition
iwrap = 1,                          ! Coordinates of the restart and mdcrd file

! Frozen or restrained atoms
ibelly = 0,                         ! No frozen atoms
ntr=1,                              ! Harmonic potential restraints
restraint_wt = 4.5,                ! The weight for the positional restraints
restraintmask = ':1-131@N,CA,C,O',  ! restrained residues

! Molecular dynamics
nstlim = 50000,                     ! Number of MD-steps
dt = 0.002,                         ! Time step

! Temperature regulation
ntt = 3,                            ! Langevin thermostat
gamma_ln = 5,                       ! Gamma constant for Langevin
temp0 = 300.0,                      ! Reference T at which the system is to be
tempi = 300.0,                      ! Initial T
ig = -1,                            ! Seed for the RNG

! P and V regulation
ntp = 1,                            ! constant P
barostat = 1,                       ! Berendsen barostat
taup = 1,                           ! Pressure relaxation time
ntb = 2,                            ! Periodic box for constant P

! SHAKE variables
ntc = 2,                            ! Bonds involving H are constrained
ntf = 2,                            ! Bond interaction involving H are ommited.

cut = 10.0,                         ! Nonbonded cutoff
/
&end

Note: ig = -1. Setting random seed to   299326 based on wallclock time in
      microseconds.

--------------------------------------------------------------------------------
   1.  RESOURCE   USE:
--------------------------------------------------------------------------------

 getting new box info from bottom of inpcrd
 NATOM  =   20379 NTYPES =      17 NBONH =   14750 MBONA  =    5644
 NTHETH =    2483 MTHETA =    1455 NPHIH =    4974 MPHIA  =    4548
 NHPARM =       0 NPARM  =       0 NNB   =   43788 NRES   =    4686
 NBONA  =    5644 NTHETA =    1455 NPHIA =    4548 NUMBND =      77
 NUMANG =     166 NPTRA  =     185 NATYP =      42 NPHB   =       1
 IFBOX  =       2 NMXRS  =      50 IFCAP =       0 NEXTRA =    4554
 NCOPY  =       0

     BOX TYPE: TRUNCATED OCTAHEDRON

--------------------------------------------------------------------------------
   2.  CONTROL  DATA  FOR  THE  RUN
--------------------------------------------------------------------------------

default_name

General flags:
     imin    =       0, nmropt  =       0

Nature and format of input:
     ntx     =       5, irest   =       1, ntrx    =       1

Nature and format of output:
     ntxo    =       1, ntpr    =     500, ntrx    =       1, ntwr    =     500
     iwrap   =       1, ntwx    =     500, ntwv    =       0, ntwe    =       0
     ioutfm  =       1, ntwprt  =       0, idecomp =       0, rbornstat=      0

Potential function:
     ntf     =       2, ntb     =       2, igb     =       0, nsnb    =      25
     ipol    =       0, gbsa    =       0, iesp    =       0
     dielc   =   1.00000, cut     =  10.00000, intdiel =   1.00000

Frozen or restrained atoms:
     ibelly  =       0, ntr     =       1
     restraint_wt =   4.50000

Molecular dynamics:
     nstlim  =     50000, nscm    =         0, nrespa  =         1
     t       =   0.00000, dt      =   0.00200, vlimit  =  -1.00000

Langevin dynamics temperature regulation:
     ig      =  299326
     temp0   = 300.00000, tempi   = 300.00000, gamma_ln=   5.00000

Pressure regulation:
     ntp     =       1
     pres0   =   1.00000, comp    =  44.60000, taup    =   1.00000

SHAKE:
     ntc     =       2, jfastw  =       0
     tol     =   0.00001

Extra-points options:
     frameon =       1, chngmask=       1

Ewald parameters:
     verbose =       0, ew_type =       0, nbflag  =       1, use_pme =       1
     vdwmeth =       1, eedmeth =       1, netfrc  =       1
     Box X =   58.681   Box Y =   58.681   Box Z =   58.681
     Alpha =  109.471   Beta  =  109.471   Gamma =  109.471
     NFFT1 =   64       NFFT2 =   64       NFFT3 =   64
     Cutoff=   10.000   Tol   =0.100E-04
     Ewald Coefficient =  0.27511
     Interpolation order =    4

    LOADING THE CONSTRAINED ATOMS AS GROUPS

   5.  REFERENCE ATOM COORDINATES

  default_name
     Mask :1-131@N,CA,C,O; matches   524 atoms

--------------------------------------------------------------------------------
   3.  ATOMIC COORDINATES AND VELOCITIES
--------------------------------------------------------------------------------

default_name
 begin time read from input coords =  1800.000 ps

 Number of triangulated 3-point waters found:     4554

     Sum of charges from parm topology file =   0.00202595
     Forcing neutrality...

--------------------------------------------------------------------------------
   4.  RESULTS
 NSTEP =      500   TIME(PS) =    1801.000  TEMP(K) =   301.25  PRESS =    72.3
 Etot   =    -51327.5314  EKtot   =      9795.2441  EPtot      =    -61122.7755
 BOND   =       401.0756  ANGLE   =      1080.0710  DIHED      =       717.6645
 1-4 NB =       461.6251  1-4 EEL =      5669.7340  VDWAALS    =      6788.9929
 EELEC  =    -76330.2909  EHBOND  =         0.0000  RESTRAINT  =        88.3524
 EAMBER (non-restraint)  =    -61211.1279
 EKCMT  =      4047.6923  VIRIAL  =      3805.4336  VOLUME     =    155172.4757
                                                    Density    =         1.0412
 ------------------------------------------------------------------------------

      A V E R A G E S   O V E R     100 S T E P S

 NSTEP =    50000   TIME(PS) =    1900.000  TEMP(K) =   300.32  PRESS =   -31.0
 Etot   =    -51206.6562  EKtot   =      9764.9827  EPtot      =    -60971.6389
 BOND   =       403.9839  ANGLE   =      1055.0367  DIHED      =       715.9138
 1-4 NB =       455.4131  1-4 EEL =      5664.7011  VDWAALS    =      6763.9257
 EELEC  =    -76129.4819  EHBOND  =         0.0000  RESTRAINT  =        98.8686
 EAMBER (non-restraint)  =    -61070.5075
 EKCMT  =      4086.5958  VIRIAL  =      4190.8175  VOLUME     =    155738.0102
                                                    Density    =         1.0374
 ------------------------------------------------------------------------------

      R M S  F L U C T U A T I O N S

 NSTEP =    50000   TIME(PS) =    1900.000  TEMP(K) =     2.37  PRESS =   198.2
 Etot   =       138.8394  EKtot   =        77.0796  EPtot      =       102.0379
 BOND   =        17.1160  ANGLE   =        25.5523  DIHED      =        10.8056
 1-4 NB =         8.8202  1-4 EEL =        23.6829  VDWAALS    =        95.3221
 EELEC  =       148.4096  EHBOND  =         0.0000  RESTRAINT  =         5.9445
 EAMBER (non-restraint)  =        96.0933
 EKCMT  =        49.4388  VIRIAL  =       664.2725  VOLUME     =       345.9264
                                                    Density    =         0.0023
 ------------------------------------------------------------------------------
