-------------------------------------------------------
          Amber 18 PMEMD                              2018
          -------------------------------------------------------

  [-O]verwriting output

File Assignments:

 Here is the input file:

Equilibration with solute restrictions
&cntrl
imin = 0,                           ! No Minimization
nmropt = 0,                         ! No NMR restraints read

! Nature and format of the input
ntx = 5,                            ! Coordinates but no velocities will be rea
irest = 1,                          ! Do not run a new simulation

! Nature and format of the output
ntxo = 1,                           ! rstrt file in ASCII format
ntpr = 500,                         ! inf in output every ntpr steps
ntwr = 500,                         ! rstrt file every ntwr steps
ntwx = 500,                         ! mdcrd file every ntwx steps
ntwv = 0,                           ! mdvel without velocities
ntwe = 0,                           ! Do not write energies and temperatures
idecomp = 0,                        ! No energy decomposition
iwrap = 1,                          ! Coordinates of the restart and mdcrd file

! Frozen or restrained atoms
ibelly = 0,                         ! No frozen atoms
ntr=1,                              ! Harmonic potential restraints
restraint_wt = 20.0,                ! The weight for the positional restraints
restraintmask = ':1-131@N,CA,C,O',  ! restrained residues

! Molecular dynamics
nstlim = 50000,                     ! Number of MD-steps
dt = 0.002,                         ! Time step

! Temperature regulation
ntt = 3,                            ! Langevin thermostat
gamma_ln = 5,                       ! Gamma constant for Langevin
temp0 = 300.0,                      ! Reference T at which the system is to be
tempi = 300.0,                      ! Initial T
ig = -1,                            ! Seed for the RNG

! P and V regulation
ntp = 1,                            ! constant P
barostat = 1,                       ! Berendsen barostat
taup = 1,                           ! Pressure relaxation time
ntb = 2,                            ! Periodic box for constant P

! SHAKE variables
ntc = 2,                            ! Bonds involving H are constrained
ntf = 2,                            ! Bond interaction involving H are ommited.

cut = 10.0,                         ! Nonbonded cutoff
/
&end

Note: ig = -1. Setting random seed to   234427 based on wallclock time in
      microseconds.

--------------------------------------------------------------------------------
   1.  RESOURCE   USE:
--------------------------------------------------------------------------------

 getting new box info from bottom of inpcrd
 NATOM  =   26239 NTYPES =      18 NBONH =   19085 MBONA  =    7172
 NTHETH =    2839 MTHETA =    1632 NPHIH =    5501 MPHIA  =    5045
 NHPARM =       0 NPARM  =       0 NNB   =   55151 NRES   =    6111
 NBONA  =    7172 NTHETA =    1632 NPHIA =    5045 NUMBND =      64
 NUMANG =     145 NPTRA  =     163 NATYP =      33 NPHB   =       1
 IFBOX  =       2 NMXRS  =      24 IFCAP =       0 NEXTRA =    5952
 NCOPY  =       0

     BOX TYPE: TRUNCATED OCTAHEDRON

--------------------------------------------------------------------------------
   2.  CONTROL  DATA  FOR  THE  RUN
--------------------------------------------------------------------------------

default_name

General flags:
     imin    =       0, nmropt  =       0

Nature and format of input:
     ntx     =       5, irest   =       1, ntrx    =       1

Nature and format of output:
     ntxo    =       1, ntpr    =     500, ntrx    =       1, ntwr    =     500
     iwrap   =       1, ntwx    =     500, ntwv    =       0, ntwe    =       0
     ioutfm  =       1, ntwprt  =       0, idecomp =       0, rbornstat=      0

Potential function:
     ntf     =       2, ntb     =       2, igb     =       0, nsnb    =      25
     ipol    =       0, gbsa    =       0, iesp    =       0
     dielc   =   1.00000, cut     =  10.00000, intdiel =   1.00000

Frozen or restrained atoms:
     ibelly  =       0, ntr     =       1
     restraint_wt =  20.00000

Molecular dynamics:
     nstlim  =     50000, nscm    =         0, nrespa  =         1
     t       =   0.00000, dt      =   0.00200, vlimit  =  -1.00000

Langevin dynamics temperature regulation:
     ig      =  234427
     temp0   = 300.00000, tempi   = 300.00000, gamma_ln=   5.00000

Pressure regulation:
     ntp     =       1
     pres0   =   1.00000, comp    =  44.60000, taup    =   1.00000

SHAKE:
     ntc     =       2, jfastw  =       0
     tol     =   0.00001

Extra-points options:
     frameon =       1, chngmask=       1

Ewald parameters:
     verbose =       0, ew_type =       0, nbflag  =       1, use_pme =       1
     vdwmeth =       1, eedmeth =       1, netfrc  =       1
     Box X =   64.324   Box Y =   64.324   Box Z =   64.324
     Alpha =  109.471   Beta  =  109.471   Gamma =  109.471
     NFFT1 =   64       NFFT2 =   64       NFFT3 =   64
     Cutoff=   10.000   Tol   =0.100E-04
     Ewald Coefficient =  0.27511
     Interpolation order =    4

    LOADING THE CONSTRAINED ATOMS AS GROUPS

   5.  REFERENCE ATOM COORDINATES

  default_name
     Mask :1-131@N,CA,C,O; matches   524 atoms

--------------------------------------------------------------------------------
   3.  ATOMIC COORDINATES AND VELOCITIES
--------------------------------------------------------------------------------

default_name
 begin time read from input coords =   436.000 ps

 Number of triangulated 3-point waters found:     5952

     Sum of charges from parm topology file =   0.00003259
     Forcing neutrality...

--------------------------------------------------------------------------------
   4.  RESULTS
 NSTEP =      500   TIME(PS) =     437.000  TEMP(K) =   302.09  PRESS =  -100.7
 Etot   =    -64989.8116  EKtot   =     12539.3984  EPtot      =    -77529.2100
 BOND   =       440.5405  ANGLE   =      1188.2626  DIHED      =       687.7535
 UB     =         0.0000  IMP     =         0.0000  CMAP       =       162.6380
 1-4 NB =       556.9633  1-4 EEL =      8934.3514  VDWAALS    =      9187.3808
 EELEC  =    -98825.2861  EHBOND  =         0.0000  RESTRAINT  =       138.1859
 EAMBER (non-restraint)  =    -77667.3960
 EKCMT  =      5443.5390  VIRIAL  =      5888.0648  VOLUME     =    204529.5513
                                                    Density    =         1.0098
 ------------------------------------------------------------------------------

      A V E R A G E S   O V E R     100 S T E P S

 NSTEP =    50000   TIME(PS) =     536.000  TEMP(K) =   300.29  PRESS =    -5.5
 Etot   =    -65179.2196  EKtot   =     12464.4185  EPtot      =    -77643.6381
 BOND   =       446.3064  ANGLE   =      1204.9337  DIHED      =       706.9007
 UB     =         0.0000  IMP     =         0.0000  CMAP       =       161.2750
 1-4 NB =       554.4491  1-4 EEL =      8914.3515  VDWAALS    =      9125.8192
 EELEC  =    -98916.7582  EHBOND  =         0.0000  RESTRAINT  =       159.0846
 EAMBER (non-restraint)  =    -77802.7227
 EKCMT  =      5352.9584  VIRIAL  =      5377.5981  VOLUME     =    200655.2680
                                                    Density    =         1.0294
 ------------------------------------------------------------------------------

      R M S  F L U C T U A T I O N S

 NSTEP =    50000   TIME(PS) =     536.000  TEMP(K) =     2.29  PRESS =   151.5
 Etot   =       155.4805  EKtot   =        94.8816  EPtot      =       124.1448
 BOND   =        16.3703  ANGLE   =        25.6954  DIHED      =        14.0302
 UB     =         0.0000  IMP     =         0.0000  CMAP       =         3.5473
 1-4 NB =         9.5385  1-4 EEL =        20.2833  VDWAALS    =       127.0701
 EELEC  =       206.7893  EHBOND  =         0.0000  RESTRAINT  =         7.6569
 EAMBER (non-restraint)  =       116.4879
 EKCMT  =        65.4164  VIRIAL  =       658.2813  VOLUME     =      1077.6207
                                                    Density    =         0.0055
 ------------------------------------------------------------------------------
