-------------------------------------------------------
          Amber 18 PMEMD                              2018
          -------------------------------------------------------

  [-O]verwriting output

File Assignments:

 Here is the input file:

Equilibration with solute restrictions
&cntrl
imin = 0,                           ! No Minimization
nmropt = 0,                         ! No NMR restraints read

! Nature and format of the input
ntx = 5,                            ! Coordinates but no velocities will be rea
irest = 1,                          ! Do not run a new simulation

! Nature and format of the output
ntxo = 1,                           ! rstrt file in ASCII format
ntpr = 500,                         ! inf in output every ntpr steps
ntwr = 500,                         ! rstrt file every ntwr steps
ntwx = 500,                         ! mdcrd file every ntwx steps
ntwv = 0,                           ! mdvel without velocities
ntwe = 0,                           ! Do not write energies and temperatures
idecomp = 0,                        ! No energy decomposition
iwrap = 1,                          ! Coordinates of the restart and mdcrd file

! Frozen or restrained atoms
ibelly = 0,                         ! No frozen atoms
ntr=1,                              ! Harmonic potential restraints
restraint_wt = 0.11,                ! The weight for the positional restraints
restraintmask = ':1-131@N,CA,C,O',  ! restrained residues

! Molecular dynamics
nstlim = 50000,                     ! Number of MD-steps
dt = 0.002,                         ! Time step

! Temperature regulation
ntt = 3,                            ! Langevin thermostat
gamma_ln = 5,                       ! Gamma constant for Langevin
temp0 = 300.0,                      ! Reference T at which the system is to be
tempi = 300.0,                      ! Initial T
ig = -1,                            ! Seed for the RNG

! P and V regulation
ntp = 1,                            ! constant P
barostat = 1,                       ! Berendsen barostat
taup = 1,                           ! Pressure relaxation time
ntb = 2,                            ! Periodic box for constant P

! SHAKE variables
ntc = 2,                            ! Bonds involving H are constrained
ntf = 2,                            ! Bond interaction involving H are ommited.

cut = 10.0,                         ! Nonbonded cutoff
/
&end

Note: ig = -1. Setting random seed to   349340 based on wallclock time in
      microseconds.

--------------------------------------------------------------------------------
   1.  RESOURCE   USE:
--------------------------------------------------------------------------------

 getting new box info from bottom of inpcrd
 NATOM  =   26239 NTYPES =      18 NBONH =   19085 MBONA  =    7172
 NTHETH =    2839 MTHETA =    1632 NPHIH =    5501 MPHIA  =    5045
 NHPARM =       0 NPARM  =       0 NNB   =   55151 NRES   =    6111
 NBONA  =    7172 NTHETA =    1632 NPHIA =    5045 NUMBND =      64
 NUMANG =     145 NPTRA  =     163 NATYP =      33 NPHB   =       1
 IFBOX  =       2 NMXRS  =      24 IFCAP =       0 NEXTRA =    5952
 NCOPY  =       0

     BOX TYPE: TRUNCATED OCTAHEDRON

--------------------------------------------------------------------------------
   2.  CONTROL  DATA  FOR  THE  RUN
--------------------------------------------------------------------------------

default_name

General flags:
     imin    =       0, nmropt  =       0

Nature and format of input:
     ntx     =       5, irest   =       1, ntrx    =       1

Nature and format of output:
     ntxo    =       1, ntpr    =     500, ntrx    =       1, ntwr    =     500
     iwrap   =       1, ntwx    =     500, ntwv    =       0, ntwe    =       0
     ioutfm  =       1, ntwprt  =       0, idecomp =       0, rbornstat=      0

Potential function:
     ntf     =       2, ntb     =       2, igb     =       0, nsnb    =      25
     ipol    =       0, gbsa    =       0, iesp    =       0
     dielc   =   1.00000, cut     =  10.00000, intdiel =   1.00000

Frozen or restrained atoms:
     ibelly  =       0, ntr     =       1
     restraint_wt =   0.11000

Molecular dynamics:
     nstlim  =     50000, nscm    =         0, nrespa  =         1
     t       =   0.00000, dt      =   0.00200, vlimit  =  -1.00000

Langevin dynamics temperature regulation:
     ig      =  349340
     temp0   = 300.00000, tempi   = 300.00000, gamma_ln=   5.00000

Pressure regulation:
     ntp     =       1
     pres0   =   1.00000, comp    =  44.60000, taup    =   1.00000

SHAKE:
     ntc     =       2, jfastw  =       0
     tol     =   0.00001

Extra-points options:
     frameon =       1, chngmask=       1

Ewald parameters:
     verbose =       0, ew_type =       0, nbflag  =       1, use_pme =       1
     vdwmeth =       1, eedmeth =       1, netfrc  =       1
     Box X =   63.737   Box Y =   63.737   Box Z =   63.737
     Alpha =  109.471   Beta  =  109.471   Gamma =  109.471
     NFFT1 =   64       NFFT2 =   64       NFFT3 =   64
     Cutoff=   10.000   Tol   =0.100E-04
     Ewald Coefficient =  0.27511
     Interpolation order =    4

    LOADING THE CONSTRAINED ATOMS AS GROUPS

   5.  REFERENCE ATOM COORDINATES

  default_name
     Mask :1-131@N,CA,C,O; matches   524 atoms

--------------------------------------------------------------------------------
   3.  ATOMIC COORDINATES AND VELOCITIES
--------------------------------------------------------------------------------

default_name
 begin time read from input coords =  4236.000 ps

 Number of triangulated 3-point waters found:     5952

     Sum of charges from parm topology file =   0.00003259
     Forcing neutrality...

--------------------------------------------------------------------------------
   4.  RESULTS
 NSTEP =      500   TIME(PS) =    4237.000  TEMP(K) =   300.15  PRESS =    34.6
 Etot   =    -65405.2069  EKtot   =     12458.7988  EPtot      =    -77864.0058
 BOND   =       441.6043  ANGLE   =      1173.6197  DIHED      =       714.4498
 UB     =         0.0000  IMP     =         0.0000  CMAP       =       166.1975
 1-4 NB =       561.3027  1-4 EEL =      8896.1614  VDWAALS    =      8945.2766
 EELEC  =    -98771.1460  EHBOND  =         0.0000  RESTRAINT  =         8.5282
 EAMBER (non-restraint)  =    -77872.5340
 EKCMT  =      5291.5590  VIRIAL  =      5142.7671  VOLUME     =    199282.5053
                                                    Density    =         1.0364
 ------------------------------------------------------------------------------

      A V E R A G E S   O V E R     100 S T E P S

 NSTEP =    50000   TIME(PS) =    4336.000  TEMP(K) =   299.71  PRESS =    -2.5
 Etot   =    -65530.2161  EKtot   =     12440.5377  EPtot      =    -77970.7538
 BOND   =       444.9560  ANGLE   =      1210.4573  DIHED      =       700.3141
 UB     =         0.0000  IMP     =         0.0000  CMAP       =       169.0844
 1-4 NB =       556.0171  1-4 EEL =      8895.2834  VDWAALS    =      9051.1260
 EELEC  =    -99013.0005  EHBOND  =         0.0000  RESTRAINT  =        15.0084
 EAMBER (non-restraint)  =    -77985.7622
 EKCMT  =      5333.2780  VIRIAL  =      5344.1205  VOLUME     =    199392.4126
                                                    Density    =         1.0359
 ------------------------------------------------------------------------------

      R M S  F L U C T U A T I O N S

 NSTEP =    50000   TIME(PS) =    4336.000  TEMP(K) =     1.89  PRESS =   182.3
 Etot   =       141.7962  EKtot   =        78.6476  EPtot      =       114.1522
 BOND   =        17.2532  ANGLE   =        24.2562  DIHED      =        14.1733
 UB     =         0.0000  IMP     =         0.0000  CMAP       =         4.7904
 1-4 NB =         8.5108  1-4 EEL =        24.1335  VDWAALS    =       127.5494
 EELEC  =       187.8298  EHBOND  =         0.0000  RESTRAINT  =         2.7275
 EAMBER (non-restraint)  =       111.4246
 EKCMT  =        50.2468  VIRIAL  =       787.3254  VOLUME     =       576.1641
                                                    Density    =         0.0030
 ------------------------------------------------------------------------------
