-------------------------------------------------------
          Amber 18 PMEMD                              2018
          -------------------------------------------------------

  [-O]verwriting output

File Assignments:

 Here is the input file:

Equilibration with solute restrictions
&cntrl
imin = 0,                           ! No Minimization
nmropt = 0,                         ! No NMR restraints read

! Nature and format of the input
ntx = 5,                            ! Coordinates but no velocities will be rea
irest = 1,                          ! Do not run a new simulation

! Nature and format of the output
ntxo = 1,                           ! rstrt file in ASCII format
ntpr = 500,                         ! inf in output every ntpr steps
ntwr = 500,                         ! rstrt file every ntwr steps
ntwx = 500,                         ! mdcrd file every ntwx steps
ntwv = 0,                           ! mdvel without velocities
ntwe = 0,                           ! Do not write energies and temperatures
idecomp = 0,                        ! No energy decomposition
iwrap = 1,                          ! Coordinates of the restart and mdcrd file

! Frozen or restrained atoms
ibelly = 0,                         ! No frozen atoms
ntr=1,                              ! Harmonic potential restraints
restraint_wt = 0.003,                ! The weight for the positional restraints
restraintmask = ':1-131@N,CA,C,O',  ! restrained residues

! Molecular dynamics
nstlim = 50000,                     ! Number of MD-steps
dt = 0.002,                         ! Time step

! Temperature regulation
ntt = 3,                            ! Langevin thermostat
gamma_ln = 5,                       ! Gamma constant for Langevin
temp0 = 300.0,                      ! Reference T at which the system is to be
tempi = 300.0,                      ! Initial T
ig = -1,                            ! Seed for the RNG

! P and V regulation
ntp = 1,                            ! constant P
barostat = 1,                       ! Berendsen barostat
taup = 1,                           ! Pressure relaxation time
ntb = 2,                            ! Periodic box for constant P

! SHAKE variables
ntc = 2,                            ! Bonds involving H are constrained
ntf = 2,                            ! Bond interaction involving H are ommited.

cut = 10.0,                         ! Nonbonded cutoff
/
&end

Note: ig = -1. Setting random seed to   770047 based on wallclock time in
      microseconds.

--------------------------------------------------------------------------------
   1.  RESOURCE   USE:
--------------------------------------------------------------------------------

 getting new box info from bottom of inpcrd
 NATOM  =   26239 NTYPES =      18 NBONH =   19085 MBONA  =    7172
 NTHETH =    2839 MTHETA =    1632 NPHIH =    5501 MPHIA  =    5045
 NHPARM =       0 NPARM  =       0 NNB   =   55151 NRES   =    6111
 NBONA  =    7172 NTHETA =    1632 NPHIA =    5045 NUMBND =      64
 NUMANG =     145 NPTRA  =     163 NATYP =      33 NPHB   =       1
 IFBOX  =       2 NMXRS  =      24 IFCAP =       0 NEXTRA =    5952
 NCOPY  =       0

     BOX TYPE: TRUNCATED OCTAHEDRON

--------------------------------------------------------------------------------
   2.  CONTROL  DATA  FOR  THE  RUN
--------------------------------------------------------------------------------

default_name

General flags:
     imin    =       0, nmropt  =       0

Nature and format of input:
     ntx     =       5, irest   =       1, ntrx    =       1

Nature and format of output:
     ntxo    =       1, ntpr    =     500, ntrx    =       1, ntwr    =     500
     iwrap   =       1, ntwx    =     500, ntwv    =       0, ntwe    =       0
     ioutfm  =       1, ntwprt  =       0, idecomp =       0, rbornstat=      0

Potential function:
     ntf     =       2, ntb     =       2, igb     =       0, nsnb    =      25
     ipol    =       0, gbsa    =       0, iesp    =       0
     dielc   =   1.00000, cut     =  10.00000, intdiel =   1.00000

Frozen or restrained atoms:
     ibelly  =       0, ntr     =       1
     restraint_wt =   0.00300

Molecular dynamics:
     nstlim  =     50000, nscm    =         0, nrespa  =         1
     t       =   0.00000, dt      =   0.00200, vlimit  =  -1.00000

Langevin dynamics temperature regulation:
     ig      =  770047
     temp0   = 300.00000, tempi   = 300.00000, gamma_ln=   5.00000

Pressure regulation:
     ntp     =       1
     pres0   =   1.00000, comp    =  44.60000, taup    =   1.00000

SHAKE:
     ntc     =       2, jfastw  =       0
     tol     =   0.00001

Extra-points options:
     frameon =       1, chngmask=       1

Ewald parameters:
     verbose =       0, ew_type =       0, nbflag  =       1, use_pme =       1
     vdwmeth =       1, eedmeth =       1, netfrc  =       1
     Box X =   63.724   Box Y =   63.724   Box Z =   63.724
     Alpha =  109.471   Beta  =  109.471   Gamma =  109.471
     NFFT1 =   64       NFFT2 =   64       NFFT3 =   64
     Cutoff=   10.000   Tol   =0.100E-04
     Ewald Coefficient =  0.27511
     Interpolation order =    4

    LOADING THE CONSTRAINED ATOMS AS GROUPS

   5.  REFERENCE ATOM COORDINATES

  default_name
     Mask :1-131@N,CA,C,O; matches   524 atoms

--------------------------------------------------------------------------------
   3.  ATOMIC COORDINATES AND VELOCITIES
--------------------------------------------------------------------------------

default_name
 begin time read from input coords =  6936.000 ps

 Number of triangulated 3-point waters found:     5952

     Sum of charges from parm topology file =   0.00003259
     Forcing neutrality...

--------------------------------------------------------------------------------
   4.  RESULTS
 NSTEP =      500   TIME(PS) =    6937.000  TEMP(K) =   295.81  PRESS =   116.1
 Etot   =    -65458.1090  EKtot   =     12278.6914  EPtot      =    -77736.8004
 BOND   =       453.0198  ANGLE   =      1203.4268  DIHED      =       691.9431
 UB     =         0.0000  IMP     =         0.0000  CMAP       =       165.8004
 1-4 NB =       542.1826  1-4 EEL =      8905.9025  VDWAALS    =      8911.6050
 EELEC  =    -98610.9626  EHBOND  =         0.0000  RESTRAINT  =         0.2820
 EAMBER (non-restraint)  =    -77737.0825
 EKCMT  =      5304.0332  VIRIAL  =      4803.9386  VOLUME     =    199461.5287
                                                    Density    =         1.0355
 ------------------------------------------------------------------------------

      A V E R A G E S   O V E R     100 S T E P S

 NSTEP =    50000   TIME(PS) =    7036.000  TEMP(K) =   299.53  PRESS =    -6.2
 Etot   =    -65525.4444  EKtot   =     12433.1244  EPtot      =    -77958.5688
 BOND   =       449.7481  ANGLE   =      1207.0517  DIHED      =       698.9286
 UB     =         0.0000  IMP     =         0.0000  CMAP       =       165.6553
 1-4 NB =       561.6358  1-4 EEL =      8889.2033  VDWAALS    =      9055.2177
 EELEC  =    -98987.1399  EHBOND  =         0.0000  RESTRAINT  =         1.1306
 EAMBER (non-restraint)  =    -77959.6995
 EKCMT  =      5329.5122  VIRIAL  =      5355.9352  VOLUME     =    199383.4491
                                                    Density    =         1.0359
 ------------------------------------------------------------------------------

      R M S  F L U C T U A T I O N S

 NSTEP =    50000   TIME(PS) =    7036.000  TEMP(K) =     2.01  PRESS =   170.0
 Etot   =       153.5325  EKtot   =        83.4552  EPtot      =       120.8718
 BOND   =        18.0529  ANGLE   =        26.0174  DIHED      =        11.8672
 UB     =         0.0000  IMP     =         0.0000  CMAP       =         4.6339
 1-4 NB =         9.9783  1-4 EEL =        26.4889  VDWAALS    =       126.5610
 EELEC  =       207.8396  EHBOND  =         0.0000  RESTRAINT  =         0.2701
 EAMBER (non-restraint)  =       120.6017
 EKCMT  =        50.8835  VIRIAL  =       737.0623  VOLUME     =       417.6602
                                                    Density    =         0.0022
 ------------------------------------------------------------------------------
